<additional>
    <tlLogic id="0" type="static" programID="1" offset="0">
        <phase duration="30" state="GrGr"/>
        <phase duration="30" state="rGrG"/>
    </tlLogic>
</additional>
