<?xml version="1.0" encoding="UTF-8"?>
<nodes>
    <!-- Four junction corners -->
    <node id="N" x="0.0" y="500.0" type="priority"/>
    <node id="S" x="0.0" y="-500.0" type="priority"/>
    <node id="E" x="500.0" y="0.0" type="priority"/>
    <node id="W" x="-500.0" y="0.0" type="priority"/>

    <!-- Central traffic-light-controlled intersection -->
    <node id="C" x="0.0" y="0.0" type="traffic_light"/>
</nodes>
