<?xml version="1.0" encoding="UTF-8"?>
<configuration>
  <input>
    <net-file value="simple_intersection.net.xml"/>
    <route-files value="simple_intersection.rou.xml"/>
  </input>
  <time>
    <begin value="0"/>
    <end value="600"/>
    <step-length value="1.0"/>
  </time>
</configuration>
