<configuration>
    <input>
        <net-file value="simple_intersection.net.xml"/>
        <route-files value="simple_intersection.rou.xml"/>
    </input>

    <time>
        <begin value="0"/>
        <end value="500"/>
        <step-length value="1.0"/>
    </time>
</configuration>
